output/compact_ny_2025/partial_spc/charging_150/S1_2025_SUMMER_PEAK_PUBLIC/replay_audit_branch.csv
branch_row,device_key,from_bus,to_bus,online,rate_a_mva,from_mva,to_mva,from_overload_mva,to_overload_mva,angle_deg,angle_min_deg,angle_max_deg,angle_below_min_deg,angle_above_max_deg,violated,invalid_limit_bounds,stored_terminal_flow_error_mva,stored_terminal_flow_inconsistent
1,NPCC_S7:BRANCH_ROW:33,37,38,1,2500,61.3817618121309,52.0711802846463,0,0,-0.38877222932405,-360,360,0,0,0,0,7.105427357601e-15,0
2,NPCC_S7:BRANCH_ROW:34,37,39,1,3388,1139.15881954994,1130.45889782279,0,0,4.03444922930058,-360,360,0,0,0,0,2.27817331817184e-13,0
3,NPCC_S7:BRANCH_ROW:35,37,40,1,2500,163.30199340408,163.505330307313,0,0,-2.37585815235537,-360,360,0,0,0,0,2.92964275105423e-14,0
4,NPCC_S7:BRANCH_ROW:36,37,43,0,3745.98196383403,0,0,0,0,-5.59101892377935,-360,360,0,0,0,0,0,0
5,NPCC_S7:BRANCH_ROW:37,38,69,1,1216,184.559783359006,192.802130453717,0,0,-4.2512558297758,-360,360,0,0,0,0,7.105427357601e-15,0
6,NPCC_S7:BRANCH_ROW:38,39,73,1,2500,748.535505310766,741.569671570759,0,0,6.68121902201584,-360,360,0,0,0,0,3.5527136788005e-14,0
7,NPCC_S7:BRANCH_ROW:39,39,73,1,2500,748.535505310766,741.569671570759,0,0,6.68121902201584,-360,360,0,0,0,0,3.5527136788005e-14,0
8,NPCC_S7:BRANCH_ROW:40,40,44,0,1328.76341358641,0,0,0,0,-1.6737925209108,-360,360,0,0,0,0,0,0
9,NPCC_S7:BRANCH_ROW:41,41,42,1,2500,551.661650732029,556.349427525049,0,0,-2.45898532424586,-360,360,0,0,0,0,1.77635683940025e-15,0
10,NPCC_S7:BRANCH_ROW:42,41,45,1,314.254622579561,19.7278764590023,13.859601513309,0,0,1.82217353554811,-360,360,0,0,0,0,2.30926389122033e-14,0
11,NPCC_S7:BRANCH_ROW:43,43,44,1,2500,303.264514627767,301.189531360047,0,0,1.54136825051318,-360,360,0,0,0,0,5.6843418860808e-14,0
12,NPCC_S7:BRANCH_ROW:44,43,50,1,3463.47124449306,157.249378449799,163.801989538456,0,0,-2.03721097680774,-360,360,0,0,0,0,2.84225767789075e-14,0
13,NPCC_S7:BRANCH_ROW:45,43,50,1,3463.47124449306,157.249378449799,163.801989538456,0,0,-2.03721097680774,-360,360,0,0,0,0,2.84225767789075e-14,0
14,NPCC_S7:BRANCH_ROW:46,44,45,1,2500,279.487716444625,274.790429942886,0,0,2.60922604763687,-360,360,0,0,0,0,1.14571573537582e-13,0
15,NPCC_S7:BRANCH_ROW:47,44,48,0,6896.14528055676,0,0,0,0,-27.5624439169311,-360,360,0,0,0,0,0,0
16,NPCC_S7:BRANCH_ROW:48,45,46,1,2040.85471944324,118.904015980653,124.065302120697,0,0,-23.4027149347228,-360,360,0,0,0,0,2.00971834711523e-14,0
17,NPCC_S7:BRANCH_ROW:49,45,51,1,489.56239109923,45.695279604498,48.160910318797,0,0,-4.61645341591603,-360,360,0,0,0,0,2.8477166477148e-14,0
18,NPCC_S7:BRANCH_ROW:50,45,71,1,166.495119914644,21.6272997464382,25.0602995812541,0,0,-6.56362692331521,-360,360,0,0,0,0,1.77635683940025e-15,0
19,NPCC_S7:BRANCH_ROW:51,46,47,1,2500,138.547382598226,145.091972872956,0,0,-9.29926585217117,-360,360,0,0,0,0,0,0
20,NPCC_S7:BRANCH_ROW:52,46,49,1,2500,10.1113559025887,5.39444937949244,0,0,1.88748275145831,-360,360,0,0,0,0,9.93013661298909e-16,0
21,NPCC_S7:BRANCH_ROW:53,47,48,1,2500,163.483292027207,162.304179098789,0,0,2.53031082232592,-360,360,0,0,0,0,1.06581410364015e-14,0
22,NPCC_S7:BRANCH_ROW:54,50,51,1,2500,184.430051177105,181.398428474562,0,0,1.57135185904176,-360,360,0,0,0,0,3.17764371615651e-14,0
23,NPCC_S7:BRANCH_ROW:55,50,52,1,2858.06690137886,405.588207733913,399.146284207188,0,0,4.20344793010159,-360,360,0,0,0,0,5.85928550210846e-14,0
24,NPCC_S7:BRANCH_ROW:56,51,53,1,290.964700741948,75.0268297220965,66.3498812670901,0,0,8.10778798704362,-360,360,0,0,0,0,1.0845964142784e-13,0
25,NPCC_S7:BRANCH_ROW:57,51,72,1,2500,157.558421117839,162.438900222198,0,0,-1.85320528206138,-360,360,0,0,0,0,7.105427357601e-15,0
26,NPCC_S7:BRANCH_ROW:58,52,53,1,2500,295.338147157245,290.16502456463,0,0,5.47569191598379,-360,360,0,0,0,0,3.87245790989255e-13,0
27,NPCC_S7:BRANCH_ROW:59,53,55,1,997.983883346124,47.7695414846292,48.7789566250514,0,0,-2.40171165312624,-360,360,0,0,0,0,1.92372146595416e-13,0
28,NPCC_S7:BRANCH_ROW:60,53,65,1,785.968397879188,7.73019511455426,11.3140857987171,0,0,0.174059984939071,-360,360,0,0,0,0,3.82181017015631e-13,0
29,NPCC_S7:BRANCH_ROW:61,54,56,1,789.941803,28.0364915098921,29.1530669226494,0,0,-0.125176880284401,-360,360,0,0,0,0,3.55444797896667e-15,0
30,NPCC_S7:BRANCH_ROW:62,54,62,1,789.941803,35.5461050292857,35.7255721407226,0,0,1.15840603908517,-360,360,0,0,0,0,5.01250634226923e-14,0
31,NPCC_S7:BRANCH_ROW:65,55,57,1,789.941803,44.4238090410368,44.1815911205927,0,0,0.874330816358375,-360,360,0,0,0,0,5.00719199953295e-14,0
32,NPCC_S7:BRANCH_ROW:66,55,59,1,789.941803,19.705715840483,20.0474672979866,0,0,0.772642703449343,-360,360,0,0,0,0,2.22044604925031e-16,0
33,NPCC_S7:BRANCH_ROW:67,56,58,1,2500,226.982927987314,226.945882691428,0,0,1.60302065950747,-360,360,0,0,0,0,1.57673659761155e-12,0
34,NPCC_S7:BRANCH_ROW:68,57,59,1,2500,3.31890387581653,6.38432123946234,0,0,-0.101688112909033,-360,360,0,0,0,0,2.4621933426568e-14,0
35,NPCC_S7:BRANCH_ROW:69,58,60,1,2500,44.1301408788763,29.2186902930805,0,0,-0.455672504868734,-360,360,0,0,0,0,7.76787594421057e-13,0
36,NPCC_S7:BRANCH_ROW:70,58,62,1,2500,40.5905359884119,39.5723668791239,0,0,-0.319437740137906,-360,360,0,0,0,0,8.67015007318769e-13,0
37,NPCC_S7:BRANCH_ROW:71,59,61,1,2500,15.1047849289546,16.5881265016545,0,0,-1.16576371260879,-360,360,0,0,0,0,1.80731214395321e-15,0
38,NPCC_S7:BRANCH_ROW:73,62,63,1,620,4.40371908687218,14.9655327097816,0,0,-0.16066197935808,-360,360,0,0,0,0,2.46819333533037e-14,0
39,NPCC_S7:BRANCH_ROW:74,63,64,1,2500,79.9046707944682,79.2471041600558,0,0,1.73562689956742,-360,360,0,0,0,0,4.27803377746453e-14,0
40,NPCC_S7:BRANCH_ROW:75,63,67,1,2500,80.3055996341933,81.0685572070229,0,0,-3.61590476582528,-360,360,0,0,0,0,1.77635683940025e-15,0
41,NPCC_S7:BRANCH_ROW:76,64,65,1,2500,41.7615287330588,40.7501511789813,0,0,1.71737161078324,-360,360,0,0,0,0,4.44089209850063e-16,0
42,NPCC_S7:BRANCH_ROW:77,64,68,1,2500,50.5436204681077,56.0844524877846,0,0,-6.58539328210199,-360,360,0,0,0,0,3.5527136788005e-15,0
43,NPCC_S7:BRANCH_ROW:78,66,67,1,2500,31.7566588927505,31.606099518074,0,0,-0.219199929183236,-360,360,0,0,0,0,1.4210854715202e-14,0
44,NPCC_S7:BRANCH_ROW:79,66,69,1,2500,24.8356526233244,8.00467198953548,0,0,-0.0152946425445319,-360,360,0,0,0,0,9.15513359704447e-16,0
45,NPCC_S7:BRANCH_ROW:81,67,68,1,2500,57.8708206051773,57.2773355051511,0,0,-1.2338616167093,-360,360,0,0,0,0,1.46482137552712e-14,0
46,NPCC_S7:BRANCH_ROW:82,67,70,1,2500,58.3129797996372,61.4079443608227,0,0,-1.77415770476192,-360,360,0,0,0,0,4.98093118494934e-14,0
47,NPCC_S7:BRANCH_ROW:84,68,71,1,2500,14.656779426936,19.0241851940221,0,0,-1.92625658649664,-360,360,0,0,0,0,1.77635683940025e-15,0
48,NPCC_S7:BRANCH_ROW:85,69,71,1,2500,196.903081122117,193.265448346874,0,0,-3.36402348984465,-360,360,0,0,0,0,2.92964275105423e-14,0
49,NPCC_S7:BRANCH_ROW:86,70,71,1,2500,61.4079443608121,60.91396834524,0,0,-1.38596049844402,-360,360,0,0,0,0,7.105427357601e-15,0
50,NPCC_S7:BRANCH_ROW:87,71,72,1,2500,22.4469624686146,12.3862874049801,0,0,0.0939682253377985,-360,360,0,0,0,0,0,0
51,NPCC_S7:BRANCH_ROW:88,73,74,0,1599.84337349398,0,0,0,0,4.81935610954466,-360,360,0,0,0,0,0,0
52,NPCC_S7:BRANCH_ROW:89,73,74,0,1599.84337349398,0,0,0,0,4.81935610954466,-360,360,0,0,0,0,0,0
53,NPCC_S7:BRANCH_ROW:90,74,77,1,2500,28.5887494052534,29.8035385132974,0,0,0.0597324396937786,-360,360,0,0,0,0,6.33295912112604e-12,0
54,NPCC_S7:BRANCH_ROW:91,74,78,1,2889.50495049505,607.688765298355,604.194221080475,0,0,1.34619679809231,-360,360,0,0,0,0,6.23894152112144e-12,0
55,NPCC_S7:BRANCH_ROW:92,74,78,1,2889.50495049505,607.688765298355,604.194221080475,0,0,1.34619679809231,-360,360,0,0,0,0,6.23894152112144e-12,0
56,NPCC_S7:BRANCH_ROW:94,76,77,0,4611.31325301205,0,0,0,0,0.210820656494054,-360,360,0,0,0,0,0,0
57,NPCC_S7:BRANCH_ROW:95,78,79,0,908.848753535103,0,0,0,0,1.74675181924127,-360,360,0,0,0,0,0,0
58,NPCC_S7:BRANCH_ROW:96,78,80,1,984.654731457801,57.3756329106394,48.7897400708995,0,0,1.31774189649965,-360,360,0,0,0,0,0,0
59,NPCC_S7:BRANCH_ROW:97,78,81,0,503.818330764024,0,0,0,0,-0.571900501820281,-360,360,0,0,0,0,0,0
60,NPCC_S7:BRANCH_ROW:98,78,82,1,451.473569126203,162.885094679506,162.691043562423,0,0,2.46546477415054,-360,360,0,0,0,0,2.86428933843956e-14,0
61,NPCC_S7:BRANCH_ROW:219,40,41,1,2500,148.122347729403,146.148557759715,0,0,-0.886740008822032,-360,360,0,0,0,0,2.00971834711523e-14,0
62,NPCC_S7:BRANCH_ROW:220,49,48,0,2500,0,0,0,0,-8.65643778130357,-360,360,0,0,0,0,0,0
63,NPCC_S7:BRANCH_ROW:222,54,52,1,4583.01611665388,106.535894776128,106.546557601841,0,0,-1.19900933084512,-360,360,0,0,0,0,1.4210854715202e-14,0
64,NPCC_S7:BRANCH_ROW:223,54,55,1,2500,304.318471428835,302.386319040917,0,0,1.87497093201243,-360,360,0,0,0,0,5.72857867687912e-14,0
65,NPCC_S7:BRANCH_ROW:224,56,57,1,2500,42.8786626563888,42.4436357927896,0,0,2.8744786286552,-360,360,0,0,0,0,1.44584971516257e-14,0
66,NPCC_S7:BRANCH_ROW:225,58,59,1,2500,265.568453398199,264.243595679637,0,0,1.16976985623869,-360,360,0,0,0,0,1.55834187861084e-12,0
67,NPCC_S7:BRANCH_ROW:226,60,61,1,2500,18.5609001867907,18.4505635360988,0,0,0.459678648498643,-360,360,0,0,0,0,2.33643263633459e-14,0
68,NPCC_S7:BRANCH_ROW:227,75,76,1,2500,15.4299201362936,15.4301319337722,0,0,-0.0561608733111569,-360,360,0,0,0,0,1.88758321594477e-15,0
69,NPCC_S7:BRANCH_ROW:234,38,39,1,1216,466.21405384483,465.734020679343,0,0,4.42322145862463,-360,360,0,0,0,0,5.72857867687912e-14,0
70,NPCC_S7:BRANCH_ROW:235,73,9002,0,2432,0,0,0,0,2.52942675676054,-360,360,0,0,0,0,0,0
71,NPCC_S7:BRANCH_ROW:236,9002,74,0,2432,0,0,0,0,2.28992935278411,-360,360,0,0,0,0,0,0
72,NPCC_S7:BRANCH_ROW:237,74,78,1,866.851485148515,182.611136631107,182.493345972529,0,0,1.34619679809231,-360,360,0,0,0,0,1.59099705503317e-12,0
73,NPCC_S7:BRANCH_ROW:238,77,78,1,650.138613861386,130.814408183108,130.758005359002,0,0,1.28646435839854,-360,360,0,0,0,0,1.77635683940025e-15,0
74,NPCC_S7:BRANCH_ROW:239,78,81,0,1158.78216075726,0,0,0,0,-0.571900501820281,-360,360,0,0,0,0,0,0
75,NPCC_S7:BRANCH_ROW:240,78,79,0,1390.53859290871,0,0,0,0,1.74675181924127,-360,360,0,0,0,0,0,0
76,NPCC_S7:BRANCH_ROW:241,78,82,1,1390.53859290871,500.851470497175,500.254787371968,0,0,2.46546477415054,-360,360,0,0,0,0,6.27785718417055e-14,0
77,NPCC_S7:BRANCH_ROW:242,78,9003,1,2865.3452685422,108.772289502301,108.844043607691,0,0,-1.06955872903573,-360,360,0,0,0,0,1.57901662390368e-14,0
78,NPCC_S7:BRANCH_ROW:243,9003,80,1,5000,242.882979374915,242.418077002957,0,0,2.38730062553538,-360,360,0,0,0,0,2.8477166477148e-14,0
79,NPCC_S7:BRANCH_ROW:244,81,80,1,2950,127.537986171733,127.832162118967,0,0,1.88964239831993,-360,360,0,0,0,0,1.58882185807825e-14,0
80,NPCC_S7:BRANCH_ROW:245,39,9001,1,5000,244.026577937438,243.428235240878,0,0,4.14446749563561,-360,360,0,0,0,0,1.78663000279473e-13,0
81,NPCC_S7:BRANCH_ROW:246,9001,73,0,5000,0,0,0,0,2.53675152638024,-360,360,0,0,0,0,0,0
82,PERFORM2019:AC:651:858:1,73,858,1,1216,416.122069583077,414.842433525108,0,0,1.07726665672146,-360,360,0,0,0,0,6.35528743231302e-14,0
83,PERFORM2019:AC:651:858:2,73,858,1,1216,416.122130282842,414.842383944434,0,0,1.07726665672146,-360,360,0,0,0,0,5.72857867687912e-14,0
84,PERFORM2019:AC:651:902:1,73,9002,1,1216,416.928863408007,414.199286197993,0,0,2.52942675676054,-360,360,0,0,0,0,5.85928550210846e-14,0
85,PERFORM2019:AC:651:902:2,73,9002,1,1216,416.92892364531,414.199252259829,0,0,2.52942675676054,-360,360,0,0,0,0,5.72857867687912e-14,0
86,PERFORM2019:AC:858:902:1,858,9002,1,1216,414.842458315751,413.36149353607,0,0,1.45216010003909,-360,360,0,0,0,0,7.105427357601e-15,0
87,PERFORM2019:AC:858:902:2,858,9002,1,1216,414.842359154405,413.361561896052,0,0,1.45216010003909,-360,360,0,0,0,0,6.35528743231302e-14,0
88,PERFORM2019:AC:897:902:1,9002,74,1,1216,827.561170840804,826.485627311499,0,0,2.28992935278411,-360,360,0,0,0,0,3.20148195775122e-12,0
89,PERFORM2019:AC:897:902:2,9002,74,1,1216,827.560387484826,826.486671686251,0,0,2.28992935278411,-360,360,0,0,0,0,6.15380877330806e-12,0
90,PERFORM2019:AC:774:1519:1,76,774,1,1216,59.8120921592834,56.0325337391223,0,0,0.0719977583389415,-360,360,0,0,0,0,7.94410929039127e-15,0
91,PERFORM2019:AC:774:900:1,774,77,1,1725,56.0325337391212,51.7032993600159,0,0,0.138822898155112,-360,360,0,0,0,0,7.94410929039127e-15,0
92,PERFORM2019:AC:900:1519:1,76,77,1,1725,59.4063929587047,51.2211758882781,0,0,0.210820656494054,-360,360,0,0,0,0,7.94410929039127e-15,0
93,NY2025:CEEC:351,43,9101,1,2000,284.568124036418,277.315723331352,0,0,3.53679515188503,-360,360,0,0,0,0,1.77635683940025e-15,0
94,NY2025:CEEC:352,43,9101,1,2000,284.568124036418,277.315723331352,0,0,3.53679515188503,-360,360,0,0,0,0,1.77635683940025e-15,0
95,NY2025:CEEC:361,9101,37,1,2000,419.018128264081,418.376246216888,0,0,2.05422377189432,-360,360,0,0,0,0,5.69543329542959e-14,0
96,NY2025:CEEC:362,9101,37,1,2000,419.018128264081,418.376246216888,0,0,2.05422377189432,-360,360,0,0,0,0,5.69543329542959e-14,0
97,NY2025:CEEC:14,43,9102,1,2000,246.98638474237,238.891609081083,0,0,3.26858620125771,-360,360,0,0,0,0,2.92964275105423e-14,0
98,NY2025:CEEC:371,9101,9102,1,2000,283.938153753021,284.314020286222,0,0,-0.26820895062732,-360,360,0,0,0,0,3.5527136788005e-15,0
99,NY2025:CEEC:LEGACY230:1,40,9103,1,1328.76341358641,62.9773477777992,49.1750495878986,0,0,-0.49535186383761,-360,360,0,0,0,0,7.94410929039127e-15,0
100,NY2025:CEEC:LEGACY230:2,9103,44,1,1328.76341358641,89.6857728153309,95.1590806160245,0,0,-1.17844065707319,-360,360,0,0,0,0,1.77635683940025e-15,0
101,NY2025:CEEC:GORDON_XFMR,9102,9103,1,1200,56.5702768215957,56.1883866987599,0,0,-0.548777293671337,-360,360,0,0,0,0,7.105427357601e-15,0
102,NY2025:NYES:1,9001,9104,1,1800,243.42823524088,242.774546752477,0,0,1.03572518567121,-360,360,0,0,0,0,7.60432200549364e-13,0
103,NY2025:NYES:2,9104,73,1,1800,242.774546752476,245.399810383087,0,0,1.50102634070903,-360,360,0,0,0,0,3.17764371615651e-14,0
104,NY2025:SMART_PATH:1,1220,48,0,575,0,0,0,0,-17.9406998595886,-360,360,0,0,0,0,0,0
105,NY2025:SMART_PATH:2,1220,48,0,575,0,0,0,0,-17.9406998595886,-360,360,0,0,0,0,0,0
106,NY2025:SMART_PATH:3,1220,44,0,453,0,0,0,0,9.62174405734249,-360,360,0,0,0,0,0,0
107,NY2025:SMART_PATH:4,1220,44,0,453,0,0,0,0,9.62174405734249,-360,360,0,0,0,0,0,0
108,NY2025:NYC:DELIVERY:95:1,78,1130,1,908.848753535103,219.671414597878,219.537950415917,0,0,0.825185546748898,-360,360,0,0,0,0,5.77315972805081e-15,0
109,NY2025:NYC:DELIVERY:95:2,1130,79,1,908.848753535103,244.989405415849,244.839302691759,0,0,0.92156627249237,-360,360,0,0,0,0,5.6843418860808e-14,0
110,NY2025:NYC:DELIVERY:240:1,78,557,1,1390.53859290871,336.926613529234,336.730837207193,0,0,0.828607650519476,-360,360,0,0,0,0,5.68711676634668e-14,0
111,NY2025:NYC:DELIVERY:240:2,557,79,1,1390.53859290871,372.88411134571,372.645768493914,0,0,0.918144168721792,-360,360,0,0,0,0,1.4210854715202e-14,0
112,NY2025:NYC:DELIVERY:97:1,78,1129,1,503.818330764024,40.1088232668025,40.043679078263,0,0,-0.255730389878675,-360,360,0,0,0,0,7.32410687763558e-15,0
113,NY2025:NYC:DELIVERY:97:2,1129,81,1,503.818330764024,49.2077772957978,49.1126576149748,0,0,-0.316170111941606,-360,360,0,0,0,0,7.105427357601e-15,0
114,NY2025:NYC:DELIVERY:239:1,78,1129,1,1158.78216075726,92.0997992568433,91.9502120538648,0,0,-0.255730389878675,-360,360,0,0,0,0,7.105427357601e-15,0
115,NY2025:NYC:DELIVERY:239:2,1129,81,1,1158.78216075726,112.993252897786,112.774834535051,0,0,-0.316170111941606,-360,360,0,0,0,0,1.58882185807825e-14,0
116,NY2025:NYC:RAINEY_XFMR,1130,1529,1,1500,25.5826068257559,25.608994228698,0,0,-0.404495810054279,-360,360,0,0,0,0,3.66205343881779e-15,0
117,NY2025:NYC:ASTORIA_XFMR,557,1493,1,1500,36.5395025316988,36.5834828915418,0,0,-0.443793580874278,-360,360,0,0,0,0,7.32410687763558e-15,0
118,NY2025:NYC:CORONA_BASELINE,1493,601,1,2248,36.5834828915582,37.4293696665932,0,0,-0.0180480756534962,-360,360,0,0,0,0,6.15054289017899e-12,0
119,NY2025:RCC_QUEENS:CABLE,1529,601,1,300,25.6089942287013,25.4052363972842,0,0,-0.0539237427029171,-360,360,0,0,0,0,4.44089209850063e-16,0
120,NY2025:RCC_BROOKLYN:PAR,1129,9112,1,300,30.2190505884837,30.2874246381665,0,0,0.428116017085948,-360,360,0,0,0,0,3.5527136788005e-15,0
121,NY2025:RCC_BROOKLYN:CABLE,9112,9111,1,300,30.2874246381545,30.0647107857699,0,0,0.0108699640903112,-360,360,0,0,0,0,3.97205464519564e-15,0
122,NY2025:RCC_STATEN:PAR,81,9113,1,300,37.304106541434,37.4436404876008,0,0,0.510894685953314,-360,360,0,0,0,0,3.5527136788005e-15,0
123,NY2025:RCC_STATEN:CABLE,9113,9114,1,300,37.4436404875981,35.1809509850359,0,0,0.119189123012475,-360,360,0,0,0,0,7.70668683739828e-13,0
124,NY2025:NYC:GREENWOOD_CORONA,9111,601,1,600,63.4450486112705,62.4360442847915,0,0,0.183510402694118,-360,360,0,0,0,0,7.32410687763558e-15,0
125,NY2025:NYC:FOX_GREENWOOD,9114,9111,1,600,35.1809509850397,33.7170241560335,0,0,0.125072284152075,-360,360,0,0,0,0,7.69299930949255e-13,0
126,NY2025_SPC:MH2,48,9120,1,433.826765771777,370.47038270274,369.948661462227,0,0,0.374923728042507,-360,360,0,0,0,0,7.105427357601e-15,0
127,NY2025_SPC:MH3,48,9120,1,433.826765771777,370.47038270274,369.948661462227,0,0,0.374923728042507,-360,360,0,0,0,0,7.105427357601e-15,0
128,NY2025_SPC:HA2,9121,1220,1,1300.88273978672,696.719787488128,679.853860236496,0,0,12.8392921610872,-360,360,0,0,0,0,1.13686837721616e-13,0
129,NY2025_SPC:HW2,9121,9123,1,1863.78193173853,63.9194182320322,42.6630675803515,0,0,0.340135130610602,-360,360,0,0,0,0,7.105427357601e-15,0
130,NY2025_SPC:LINE11,9122,43,1,1863.78193173853,677.564712766486,669.195637079596,0,0,6.33668190883473,-360,360,0,0,0,0,1.4210854715202e-14,0
131,NY2025_SPC:LINE13,1220,9122,1,1863.78193173853,679.85386023649,677.564712766491,0,0,1.74369389799457,-360,360,0,0,0,0,1.4210854715202e-14,0
132,NY2025_SPC:AT2,9120,9121,1,450,369.948661462225,372.309239761345,0,0,4.72648397045893,-360,360,0,0,0,0,5.72857867687912e-14,0
133,NY2025_SPC:AT3,9120,9121,1,450,369.948661462225,372.309239761345,0,0,4.72648397045893,-360,360,0,0,0,0,5.72857867687912e-14,0
134,NY2025_SPC:TR2,9123,9124,1,1350,42.663067580352,42.6330797241954,0,0,0.175218414444974,-360,360,0,0,0,0,7.1607233460989e-15,0
135,NY2025_SPC:PLATTS_REGIONAL_EQ,49,9124,1,2500,42.0414027355607,42.6330797241953,0,0,-3.03967653774656,-360,360,0,0,0,0,7.1607233460989e-15,0
